# ====================
# | Model parameters |
# ====================

# Continuous equation parameters
 &PARM01
 vectorInvariantMomentum=.TRUE.,
 viscAr=0.00000000e+00,
 viscA4=0.00000000e+00,
 viscAh=0.00000000e+00,
 viscA4Grid=0.00000000e+00,
 viscAhGrid=0.00000000e+00,
 viscA4GridMax=5.00000000e-01,
 viscAhGridMax=1.00000000e+00,
 useAreaViscLength=.FALSE.,
 useFullLeith=.TRUE.,
 useSmag3D=.TRUE.,
 viscC4leith=0.00000000e+00,
 viscC4leithD=0.00000000e+00,
 viscC2leith=0.00000000e+00,
 viscC2leithD=0.00000000e+00,
 viscC2smag=0.00000000e+00,
 viscC4smag=4.00000000e+00,
 smag3D_coeff=2.00000000e-02,
 diffKrT=1.30000000e-07,
 diffKhT=0.00000000e+00,
 diffKrS=7.20000000e-10,
 diffKhS=0.00000000e+00,
 tempAdvScheme=33,
 saltAdvScheme=33,
 multiDimAdvection=.TRUE.,
 tempStepping=.TRUE.,
 saltStepping=.TRUE.,
 staggerTimeStep=.TRUE.,
 eosType='JMD95Z',
 no_slip_sides=.FALSE.,
 no_slip_bottom=.FALSE.,
 bottomDragLinear=0.00000000e+00,
 bottomDragQuadratic=0.00000000e+00,
 f0=-1.40000000e-04,
 gravity=9.81000000e+00,
 rhonil=1.00000000e+03,
 rhoConst=1.00000000e+03,
 ivdc_kappa=0.00000000e+00,
 implicitDiffusion=.TRUE.,
 implicitViscosity=.TRUE.,
 nonHydrostatic=.FALSE.,
 exactConserv=.TRUE.,
 useCDscheme=.FALSE.,
 readBinaryPrec=64,
 useSingleCpuIO=.TRUE.,
 debugLevel=-1,
 vectorInvariantMomentum=.TRUE.,
 useJamartWetPoints=.TRUE.,
 useJamartMomAdv=.TRUE.,
 &

# Elliptic solver parameters
 &PARM02
 useSRCGSolver=.TRUE.,
 cg2dMaxIters=1000,
 cg2dTargetResidual=1.00000000e-12,
 cg3dMaxIters=300,
 cg3dTargetResidual=1.00000000e-07,
 &

# Time stepping parameters
 &PARM03
 momDissip_In_AB=.FALSE.,
 tracForcingOutAB=1,
 nIter0=0,
 abEps=1.00000000e-01,
 chkptFreq=4.32000000e+03,
 pChkptFreq=4.32000000e+03,
 taveFreq=0.00000000e+00,
 dumpFreq=0.00000000e+00,
 monitorFreq=8.64000000e+04,
 cAdjFreq=0.00000000e+00,
 dumpInitAndLast=.TRUE.,
 pickupStrictlyMatch=.FALSE.,
 endTime=864002.6667,
 deltaT=7.66666667e+00,
 &

# Gridding parameters
 &PARM04
 usingCartesianGrid=.TRUE.,
 usingSphericalPolarGrid=.FALSE.,
 delX=2.39831270e+01, 2.39813545e+01, 2.39793960e+01, 2.39772322e+01, 2.39748414e+01, 2.39722001e+01, 2.39692819e+01, 2.39660581e+01, 2.39624968e+01, 2.39585628e+01, 
      2.39542173e+01, 2.39494175e+01, 2.39441162e+01, 2.39382616e+01, 2.39317962e+01, 2.39246569e+01, 2.39167742e+01, 2.39080716e+01, 2.38984647e+01, 2.38878610e+01, 
      2.38761585e+01, 2.38632453e+01, 2.38489984e+01, 2.38332829e+01, 2.38159509e+01, 2.37968400e+01, 2.37757729e+01, 2.37525555e+01, 2.37269756e+01, 2.36988019e+01, 
      2.36677823e+01, 2.36336427e+01, 2.35960853e+01, 2.35547872e+01, 2.35093995e+01, 2.34595455e+01, 2.34048198e+01, 2.33447874e+01, 2.32789834e+01, 2.32069122e+01, 
      2.31280480e+01, 2.30418357e+01, 2.29476924e+01, 2.28450093e+01, 2.27331557e+01, 2.26114830e+01, 2.24793305e+01, 2.23360327e+01, 2.21809279e+01, 2.20133688e+01, 
      2.18327342e+01, 2.16384432e+01, 2.14299705e+01, 2.12068633e+01, 2.09687595e+01, 2.07154064e+01, 2.04466797e+01, 2.01626024e+01, 1.98633619e+01, 1.95493257e+01, 
      1.92210527e+01, 1.88793024e+01, 1.85250372e+01, 1.81594207e+01, 1.77838086e+01, 1.73997340e+01, 1.70088857e+01, 1.66130813e+01, 1.62142345e+01, 1.58143191e+01, 
      1.54153300e+01, 1.50192439e+01, 1.46279800e+01, 1.42433638e+01, 1.38670945e+01, 1.35007168e+01, 1.31455999e+01, 1.28029213e+01, 1.24736581e+01, 1.21585840e+01, 
      1.18582724e+01, 1.15731037e+01, 1.13032779e+01, 1.10488291e+01, 1.08096431e+01, 1.05854756e+01, 1.03759716e+01, 1.01806843e+01, 9.99909294e+00, 9.83062003e+00, 
      9.67464690e+00, 9.53052759e+00, 9.39760108e+00, 9.27520182e+00, 9.16266854e+00, 9.05935158e+00, 8.96461869e+00, 8.87785956e+00, 8.79848926e+00, 8.72595061e+00, 
      8.72595061e+00, 8.79848926e+00, 8.87785956e+00, 8.96461869e+00, 9.05935158e+00, 9.16266854e+00, 9.27520182e+00, 9.39760108e+00, 9.53052759e+00, 9.67464690e+00, 
      9.83062003e+00, 9.99909294e+00, 1.01806843e+01, 1.03759716e+01, 1.05854756e+01, 1.08096431e+01, 1.10488291e+01, 1.13032779e+01, 1.15731037e+01, 1.18582724e+01, 
      1.21585840e+01, 1.24736581e+01, 1.28029213e+01, 1.31455999e+01, 1.35007168e+01, 1.38670945e+01, 1.42433638e+01, 1.46279800e+01, 1.50192439e+01, 1.54153300e+01, 
      1.58143191e+01, 1.62142345e+01, 1.66130813e+01, 1.70088857e+01, 1.73997340e+01, 1.77838086e+01, 1.81594207e+01, 1.85250372e+01, 1.88793024e+01, 1.92210527e+01, 
      1.95493257e+01, 1.98633619e+01, 2.01626024e+01, 2.04466797e+01, 2.07154064e+01, 2.09687595e+01, 2.12068633e+01, 2.14299705e+01, 2.16384432e+01, 2.18327342e+01, 
      2.20133688e+01, 2.21809279e+01, 2.23360327e+01, 2.24793305e+01, 2.26114830e+01, 2.27331557e+01, 2.28450093e+01, 2.29476924e+01, 2.30418357e+01, 2.31280480e+01, 
      2.32069122e+01, 2.32789834e+01, 2.33447874e+01, 2.34048198e+01, 2.34595455e+01, 2.35093995e+01, 2.35547872e+01, 2.35960853e+01, 2.36336427e+01, 2.36677823e+01, 
      2.36988019e+01, 2.37269756e+01, 2.37525555e+01, 2.37757729e+01, 2.37968400e+01, 2.38159509e+01, 2.38332829e+01, 2.38489984e+01, 2.38632453e+01, 2.38761585e+01, 
      2.38878610e+01, 2.38984647e+01, 2.39080716e+01, 2.39167742e+01, 2.39246569e+01, 2.39317962e+01, 2.39382616e+01, 2.39441162e+01, 2.39494175e+01, 2.39542173e+01, 
      2.39585628e+01, 2.39624968e+01, 2.39660581e+01, 2.39692819e+01, 2.39722001e+01, 2.39748414e+01, 2.39772322e+01, 2.39793960e+01, 2.39813545e+01, 2.39831270e+01,
 delY=6.00000000e+01, 6.00000000e+01, 6.00000000e+01, 6.00000000e+01, 6.00000000e+01, 6.00000000e+01, 6.00000000e+01, 6.00000000e+01, 6.00000000e+01, 6.00000000e+01, 
      6.00000000e+01, 6.00000000e+01, 6.00000000e+01, 6.00000000e+01, 6.00000000e+01, 6.00000000e+01, 6.00000000e+01, 6.00000000e+01, 6.00000000e+01, 6.00000000e+01, 
      6.00000000e+01, 6.00000000e+01, 6.00000000e+01, 6.00000000e+01, 6.00000000e+01, 6.00000000e+01, 6.00000000e+01, 6.00000000e+01, 6.00000000e+01, 6.00000000e+01, 
      6.00000000e+01, 6.00000000e+01, 6.00000000e+01, 6.00000000e+01, 6.00000000e+01, 6.00000000e+01, 6.00000000e+01, 6.00000000e+01, 6.00000000e+01, 6.00000000e+01, 
      6.00000000e+01, 6.00000000e+01, 6.00000000e+01, 6.00000000e+01, 6.00000000e+01, 6.00000000e+01, 6.00000000e+01, 6.00000000e+01, 6.00000000e+01, 6.00000000e+01,
 delR=6.39296926e-01, 6.39296926e-01, 6.50921494e-01, 6.62858521e-01, 6.75116354e-01, 6.87703563e-01, 7.00628942e-01, 7.13901521e-01, 7.27530569e-01, 7.41525598e-01, 
      7.55896376e-01, 7.70652925e-01, 7.85805537e-01, 8.01364774e-01, 8.17341478e-01, 8.33746777e-01, 8.50592096e-01, 8.67889158e-01, 8.85650001e-01, 9.03886976e-01, 
      9.22612766e-01, 9.41840384e-01, 9.61583190e-01, 9.81854896e-01, 1.00266958e+00, 1.02404167e+00, 1.04598602e+00, 1.06851783e+00, 1.09165272e+00, 1.11540672e+00, 
      1.13979630e+00, 1.16483832e+00, 1.19055014e+00, 1.21694953e+00, 1.24405476e+00, 1.27188457e+00, 1.30045818e+00, 1.32979533e+00, 1.35991628e+00, 1.39084182e+00, 
      1.42259330e+00, 1.45519259e+00, 1.48866219e+00, 1.52302514e+00, 1.55830513e+00, 1.59452645e+00, 1.63171401e+00, 1.66989341e+00, 1.70909090e+00, 1.74933343e+00, 
      1.79064863e+00, 1.83306490e+00, 1.87661134e+00, 1.92131784e+00, 1.96721506e+00, 2.01433447e+00, 2.06270836e+00, 2.11236987e+00, 2.16335299e+00, 2.21569263e+00, 
      2.26942459e+00, 2.32458560e+00, 2.38121337e+00, 2.43934659e+00, 2.49902494e+00, 2.56028918e+00, 2.62318108e+00, 2.68774353e+00, 2.75402055e+00, 2.82205728e+00,
 &

# Input datasets
 &PARM05
 bathyFile='bathyFile.bin',
 hydrogThetaFile='hydrogThetaFile.bin',
 hydrogSaltFile='hydrogSaltFile.bin',
 vVelInitFile='vVelInitFile.bin',
 &

