# =======================
# | Package parameters |
# =======================

# Active packages
 &PACKAGES
 useDiagnostics=.TRUE.,
 useSHELFICE=.TRUE.,
 useOBCS=.TRUE.,
 useSEAICE=.FALSE.,
 useEXF=.FALSE.,
 &

